         188

 Au           6           6           1
 Au           6           5           2
 Au           5           6           2
 Au           6           6           2
 Au           7           6           2
 Au           6           7           2
 Au           6           4           3
 Au           5           5           3
 Au           6           5           3
 Au           7           5           3
 Au           4           6           3
 Au           5           6           3
 Au           7           6           3
 Au           8           6           3
 Au           5           7           3
 Au           6           7           3
 Au           7           7           3
 Au           6           8           3
 Au           6           3           4
 Au           5           4           4
 Au           6           4           4
 Au           7           4           4
 Au           4           5           4
 Au           5           5           4
 Au           7           5           4
 Au           8           5           4
 Au           3           6           4
 Au           4           6           4
 Au           8           6           4
 Au           9           6           4
 Au           4           7           4
 Au           5           7           4
 Au           7           7           4
 Au           8           7           4
 Au           5           8           4
 Au           6           8           4
 Au           7           8           4
 Au           6           9           4
 Au           6           2           5
 Au           5           3           5
 Au           6           3           5
 Au           7           3           5
 Au           4           4           5
 Au           5           4           5
 Au           7           4           5
 Au           8           4           5
 Au           3           5           5
 Au           4           5           5
 Au           5           5           5
 Au           6           5           5
 Au           7           5           5
 Au           8           5           5
 Au           9           5           5
 Au           2           6           5
 Au           3           6           5
 Au           5           6           5
 Au           7           6           5
 Au           9           6           5
 Au          10           6           5
 Au           3           7           5
 Au           4           7           5
 Au           5           7           5
 Au           6           7           5
 Au           7           7           5
 Au           8           7           5
 Au           9           7           5
 Au           4           8           5
 Au           5           8           5
 Au           7           8           5
 Au           8           8           5
 Au           5           9           5
 Au           6           9           5
 Au           7           9           5
 Au           6          10           5
 Au           6           1           6
 Au           5           2           6
 Au           6           2           6
 Au           7           2           6
 Au           4           3           6
 Au           5           3           6
 Au           7           3           6
 Au           8           3           6
 Au           3           4           6
 Au           4           4           6
 Au           8           4           6
 Au           9           4           6
 Au           2           5           6
 Au           3           5           6
 Au           5           5           6
 Au           7           5           6
 Au           9           5           6
 Au          10           5           6
 Au           1           6           6
 Au           2           6           6
 Au          10           6           6
 Au          11           6           6
 Au           2           7           6
 Au           3           7           6
 Au           5           7           6
 Au           7           7           6
 Au           9           7           6
 Au          10           7           6
 Au           3           8           6
 Au           4           8           6
 Au           8           8           6
 Au           9           8           6
 Au           4           9           6
 Au           5           9           6
 Au           7           9           6
 Au           8           9           6
 Au           5          10           6
 Au           6          10           6
 Au           7          10           6
 Au           6          11           6
 Au           6           2           7
 Au           5           3           7
 Au           6           3           7
 Au           7           3           7
 Au           4           4           7
 Au           5           4           7
 Au           7           4           7
 Au           8           4           7
 Au           3           5           7
 Au           4           5           7
 Au           5           5           7
 Au           6           5           7
 Au           7           5           7
 Au           8           5           7
 Au           9           5           7
 Au           2           6           7
 Au           3           6           7
 Au           5           6           7
 Au           7           6           7
 Au           9           6           7
 Au          10           6           7
 Au           3           7           7
 Au           4           7           7
 Au           5           7           7
 Au           6           7           7
 Au           7           7           7
 Au           8           7           7
 Au           9           7           7
 Au           4           8           7
 Au           5           8           7
 Au           7           8           7
 Au           8           8           7
 Au           5           9           7
 Au           6           9           7
 Au           7           9           7
 Au           6          10           7
 Au           6           3           8
 Au           5           4           8
 Au           6           4           8
 Au           7           4           8
 Au           4           5           8
 Au           5           5           8
 Au           7           5           8
 Au           8           5           8
 Au           3           6           8
 Au           4           6           8
 Au           8           6           8
 Au           9           6           8
 Au           4           7           8
 Au           5           7           8
 Au           7           7           8
 Au           8           7           8
 Au           5           8           8
 Au           6           8           8
 Au           7           8           8
 Au           6           9           8
 Au           6           4           9
 Au           5           5           9
 Au           6           5           9
 Au           7           5           9
 Au           4           6           9
 Au           5           6           9
 Au           7           6           9
 Au           8           6           9
 Au           5           7           9
 Au           6           7           9
 Au           7           7           9
 Au           6           8           9
 Au           6           5          10
 Au           5           6          10
 Au           6           6          10
 Au           7           6          10
 Au           6           7          10
 Au           6           6          11
