          38

 Au          50          49          48
 Au          49          50          48
 Au          50          50          48
 Au          51          50          48
 Au          50          51          48
 Au          50          48          49
 Au          49          49          49
 Au          51          49          49
 Au          48          50          49
 Au          52          50          49
 Au          49          51          49
 Au          51          51          49
 Au          50          52          49
 Au          49          48          50
 Au          50          48          50
 Au          51          48          50
 Au          48          49          50
 Au          52          49          50
 Au          48          50          50
 Au          52          50          50
 Au          48          51          50
 Au          52          51          50
 Au          49          52          50
 Au          50          52          50
 Au          51          52          50
 Au          50          48          51
 Au          49          49          51
 Au          51          49          51
 Au          48          50          51
 Au          52          50          51
 Au          49          51          51
 Au          51          51          51
 Au          50          52          51
 Au          50          49          52
 Au          49          50          52
 Au          50          50          52
 Au          51          50          52
 Au          50          51          52
