          24

 Au          50          45
 Au          49          46
 Au          50          46
 Au          51          46
 Au          48          47
 Au          52          47
 Au          47          48
 Au          53          48
 Au          46          49
 Au          54          49
 Au          45          50
 Au          46          50
 Au          54          50
 Au          55          50
 Au          46          51
 Au          54          51
 Au          47          52
 Au          53          52
 Au          48          53
 Au          52          53
 Au          49          54
 Au          50          54
 Au          51          54
 Au          50          55
